[General]
sim-time-limit = 100s
network = Floor
repeat = 2
output-scalar-file="${resultdir}/${configname}-${runnumber}.sca"
output-vector-file="${resultdir}/${configname}-${runnumber}.vec"
Floor.userNumber = 30
Floor.floorX = 25
Floor.floorY = 25
Floor.radius = 8