[General]
sim-time-limit = 50s
network = Floor
seed-set = ${repetition}
output-scalar-file="${resultdir}/${configname}-${runnumber}.sca"
output-vector-file="${resultdir}/${configname}-${runnumber}.vec"
Floor.userNumber = 10
Floor.floorX = 40
Floor.floorY = 40