[General]
sim-time-limit = 100s
network = Floor
seed-set = ${repetition}
output-scalar-file="${resultdir}/${configname}-${runnumber}.sca"
output-vector-file="${resultdir}/${configname}-${runnumber}.vec"
Floor.userNumber = 70
Floor.floorX = 40
Floor.floorY = 40
Floor.radius = 10