[General]
sim-time-limit = 50s
network = Floor
repeat = 2
output-scalar-file="${resultdir}/${configname}-${runnumber}.sca"
output-vector-file="${resultdir}/${configname}-${runnumber}.vec"
Floor.userNumber = 10
Floor.floorX = 10
Floor.floorY = 10
Floor.radius = 8